case_studies/2-bus_src-gfmc/outputs/small_signal_model/C.csv
Index,"('infinite_sources_0', 'i_bus_d')","('infinite_sources_0', 'i_bus_q')","('gfmi_c_0', 'angle_pc')","('gfmi_c_0', 'w_pc')","('gfmi_c_0', 'p_pc')","('gfmi_c_0', 'q_pc')","('gfmi_c_0', 'pi_vc')","('gfmi_c_0', 'i_vsc_d')","('gfmi_c_0', 'i_vsc_q')","('gfmi_c_0', 'i_bus_d')","('gfmi_c_0', 'i_bus_q')","('gfmi_c_0', 'v_lcl_sh_d')","('gfmi_c_0', 'v_lcl_sh_q')","('shunt_parallel_rc_0', 'v_bus_D')","('shunt_parallel_rc_0', 'v_bus_Q')","('shunt_parallel_rc_1', 'v_bus_D')","('shunt_parallel_rc_1', 'v_bus_Q')","('branch_series_rl_0', 'i_br_D')","('branch_series_rl_0', 'i_br_Q')"
"('infinite_sources_0', 'i_bus_D')",0.9256911281079382,0.3782802338772842,0.0,0.0,0.0,0.0,0.0,0.0,0.0,0.0,0.0,0.0,0.0,0.0,0.0,0.0,0.0,0.0,0.0
"('infinite_sources_0', 'i_bus_Q')",-0.3782802338772842,0.9256911281079382,0.0,0.0,0.0,0.0,0.0,0.0,0.0,0.0,0.0,0.0,0.0,0.0,0.0,0.0,0.0,0.0,0.0
"('gfmi_c_0', 'i_bus_D')",0.0,0.0,0.201251874875018,0.0,0.0,0.0,0.0,0.0,0.0,0.8654131221254014,-0.5010590065582746,0.0,0.0,0.0,0.0,0.0,0.0,0.0,0.0
"('gfmi_c_0', 'i_bus_Q')",0.0,0.0,0.7547401926508259,0.0,0.0,0.0,0.0,0.0,0.0,0.5010590065582746,0.8654131221254014,0.0,0.0,0.0,0.0,0.0,0.0,0.0,0.0
"('shunt_parallel_rc_0', 'v_bus_D')",0.0,0.0,0.0,0.0,0.0,0.0,0.0,0.0,0.0,0.0,0.0,0.0,0.0,1.0,0.0,0.0,0.0,0.0,0.0
"('shunt_parallel_rc_0', 'v_bus_Q')",0.0,0.0,0.0,0.0,0.0,0.0,0.0,0.0,0.0,0.0,0.0,0.0,0.0,0.0,1.0,0.0,0.0,0.0,0.0
"('shunt_parallel_rc_1', 'v_bus_D')",0.0,0.0,0.0,0.0,0.0,0.0,0.0,0.0,0.0,0.0,0.0,0.0,0.0,0.0,0.0,1.0,0.0,0.0,0.0
"('shunt_parallel_rc_1', 'v_bus_Q')",0.0,0.0,0.0,0.0,0.0,0.0,0.0,0.0,0.0,0.0,0.0,0.0,0.0,0.0,0.0,0.0,1.0,0.0,0.0
"('branch_series_rl_0', 'i_br_D')",0.0,0.0,0.0,0.0,0.0,0.0,0.0,0.0,0.0,0.0,0.0,0.0,0.0,0.0,0.0,0.0,0.0,1.0,0.0
"('branch_series_rl_0', 'i_br_Q')",0.0,0.0,0.0,0.0,0.0,0.0,0.0,0.0,0.0,0.0,0.0,0.0,0.0,0.0,0.0,0.0,0.0,0.0,1.0
